Version 4
SHEET 1 1540 680
WIRE -1040 -32 -1104 -32
WIRE -496 -32 -1040 -32
WIRE -384 -32 -448 -32
WIRE 560 -32 -384 -32
WIRE 928 -32 560 -32
WIRE 1056 -32 928 -32
WIRE 1392 -32 1056 -32
WIRE 1536 -32 1392 -32
WIRE -768 32 -928 32
WIRE -560 32 -704 32
WIRE 912 32 752 32
WIRE 816 64 768 64
WIRE 816 80 816 64
WIRE 1376 80 1328 80
WIRE -928 96 -928 32
WIRE -864 96 -928 96
WIRE -448 96 -448 -32
WIRE -448 96 -608 96
WIRE 160 96 -240 96
WIRE 256 96 224 96
WIRE 784 96 256 96
WIRE 1328 96 1328 80
WIRE 448 112 432 112
WIRE 608 112 528 112
WIRE 912 112 912 32
WIRE 912 112 848 112
WIRE 1152 112 912 112
WIRE 1248 112 1232 112
WIRE 1296 112 1248 112
WIRE -384 128 -384 -32
WIRE 752 128 752 32
WIRE 784 128 752 128
WIRE 1408 128 1360 128
WIRE 1424 128 1408 128
WIRE 1536 128 1504 128
WIRE 1296 144 1280 144
WIRE 1408 144 1408 128
WIRE -864 160 -928 160
WIRE -560 160 -560 32
WIRE -560 160 -608 160
WIRE 560 160 560 -32
WIRE 560 160 496 160
WIRE 816 160 816 144
WIRE 928 160 928 -32
WIRE 928 160 816 160
WIRE 992 160 944 160
WIRE 320 176 112 176
WIRE 336 176 320 176
WIRE 432 176 432 112
WIRE 432 176 416 176
WIRE 464 176 432 176
WIRE 944 176 944 160
WIRE 256 192 256 96
WIRE 320 192 320 176
WIRE 544 192 528 192
WIRE 608 192 608 112
WIRE 640 192 608 192
WIRE 816 192 720 192
WIRE 864 192 816 192
WIRE 912 192 864 192
WIRE 1328 192 1328 160
WIRE 1392 192 1392 -32
WIRE 1392 192 1328 192
WIRE -1104 208 -1104 -32
WIRE -240 208 -240 96
WIRE 864 208 864 192
WIRE 1024 208 976 208
WIRE 1152 208 1024 208
WIRE 1248 208 1248 112
WIRE 1248 208 1232 208
WIRE -1040 224 -1040 -32
WIRE -864 224 -928 224
WIRE -496 224 -496 -32
WIRE -496 224 -608 224
WIRE 816 224 816 192
WIRE 912 224 896 224
WIRE 1024 224 1024 208
WIRE 544 240 544 192
WIRE 624 240 608 240
WIRE 1280 240 1280 144
WIRE 1408 240 1408 224
WIRE 1408 240 1280 240
WIRE 496 256 496 224
WIRE 560 256 496 256
WIRE 1408 256 1408 240
WIRE -864 288 -928 288
WIRE -384 288 -384 192
WIRE -384 288 -608 288
WIRE -336 288 -384 288
WIRE -1104 304 -1104 288
WIRE -1040 304 -1040 288
WIRE -336 304 -336 288
WIRE -240 304 -240 288
WIRE 112 304 112 176
WIRE 256 304 256 272
WIRE 320 304 320 272
WIRE 432 304 432 176
WIRE 448 304 432 304
WIRE 624 304 624 240
WIRE 624 304 528 304
WIRE 816 304 816 288
WIRE 864 304 864 288
WIRE 896 320 896 224
WIRE 1024 320 1024 304
WIRE 1024 320 896 320
WIRE 1408 352 1408 336
WIRE 944 368 944 240
WIRE 1056 368 1056 -32
WIRE 1056 368 944 368
WIRE -384 416 -384 288
WIRE 1024 416 1024 320
WIRE -240 496 -240 464
WIRE -928 672 -928 288
WIRE -384 672 -384 480
WIRE -384 672 -928 672
WIRE 560 672 560 256
WIRE 560 672 -384 672
WIRE 768 672 768 64
WIRE 768 672 560 672
WIRE 992 672 992 160
WIRE 992 672 768 672
WIRE 1376 672 1376 80
WIRE 1376 672 992 672
FLAG -1104 304 0
FLAG -240 304 0
FLAG 816 304 0
FLAG 864 304 0
FLAG 1408 352 0
FLAG -1040 304 0
FLAG 256 304 0
FLAG 320 304 0
FLAG -336 304 0
FLAG 464 208 0
FLAG -240 96 vin
FLAG -240 576 0
FLAG -240 464 carrier
FLAG 112 384 0
FLAG 1024 496 0
SYMBOL voltage -1104 192 R0
WINDOW 123 0 0 Left 2
WINDOW 39 0 0 Left 2
SYMATTR InstName V1
SYMATTR Value 5
SYMBOL voltage -240 192 R0
WINDOW 123 24 124 Left 2
WINDOW 39 0 0 Left 2
SYMATTR Value2 AC 1
SYMATTR InstName V2
SYMATTR Value PULSE(0 100m 50m 12m 12m 50m 150m 5)
SYMBOL voltage -240 480 R0
WINDOW 123 0 0 Left 2
WINDOW 39 0 0 Left 2
SYMATTR InstName V3
SYMATTR Value PULSE(-1 1 0 1n 1n 50u 50u)
SYMBOL diode 544 208 R270
WINDOW 0 32 32 VTop 2
WINDOW 3 0 32 VBottom 2
SYMATTR InstName D1
SYMATTR Value 1N4148
SYMBOL cap 800 224 R0
SYMATTR InstName C1
SYMATTR Value 1µ
SYMBOL res 848 192 R0
SYMATTR InstName R2
SYMATTR Value 1k
SYMBOL res 1136 128 R270
WINDOW 0 32 56 VTop 2
WINDOW 3 0 56 VBottom 2
SYMATTR InstName R3
SYMATTR Value 100k
SYMBOL res 1136 224 R270
WINDOW 0 32 56 VTop 2
WINDOW 3 0 56 VBottom 2
SYMATTR InstName R4
SYMATTR Value 100k
SYMBOL res 1392 128 R0
SYMATTR InstName R5
SYMATTR Value 100k
SYMBOL res 1392 240 R0
SYMATTR InstName R6
SYMATTR Value 100k
SYMBOL res 1408 144 R270
WINDOW 0 32 56 VTop 2
WINDOW 3 0 56 VBottom 2
SYMATTR InstName R7
SYMATTR Value 50
SYMBOL cap -1056 224 R0
SYMATTR InstName C2
SYMATTR Value 100n
SYMBOL res 240 176 R0
SYMATTR InstName R8
SYMATTR Value 1k
SYMBOL res 304 176 R0
SYMATTR InstName R9
SYMATTR Value 10k
SYMBOL Opamps\\UniversalOpamp2 496 192 R0
SYMATTR InstName U1
SYMBOL Opamps\\UniversalOpamp2 944 208 M180
SYMATTR InstName U2
SYMBOL Opamps\\UniversalOpamp2 816 112 M180
SYMATTR InstName U3
SYMBOL Opamps\\UniversalOpamp2 1328 128 M180
SYMATTR InstName U4
SYMBOL PowerProducts\\LT1026 -736 192 R0
SYMATTR InstName U5
SYMBOL cap -944 160 R0
SYMATTR InstName C5
SYMATTR Value 1µ
SYMBOL cap -768 48 R270
WINDOW 0 32 32 VTop 2
WINDOW 3 0 32 VBottom 2
SYMATTR InstName C6
SYMATTR Value 1µ
SYMBOL cap -400 128 R0
SYMATTR InstName C3
SYMATTR Value 10µ
SYMBOL cap -400 416 R0
SYMATTR InstName C4
SYMATTR Value 10µ
SYMBOL res 320 192 R270
WINDOW 0 32 56 VTop 2
WINDOW 3 0 56 VBottom 2
SYMATTR InstName R1
SYMATTR Value 1meg
SYMBOL res 432 320 R270
WINDOW 0 32 56 VTop 2
WINDOW 3 0 56 VBottom 2
SYMATTR InstName R10
SYMATTR Value 1meg
SYMBOL res 432 128 R270
WINDOW 0 32 56 VTop 2
WINDOW 3 0 56 VBottom 2
SYMATTR InstName R11
SYMATTR Value 1meg
SYMBOL diode 608 224 R90
WINDOW 0 0 32 VBottom 2
WINDOW 3 32 32 VTop 2
SYMATTR InstName D2
SYMATTR Value 1N4148
SYMBOL cap 160 112 R270
WINDOW 0 32 32 VTop 2
WINDOW 3 0 32 VBottom 2
SYMATTR InstName C7
SYMATTR Value 1µ
SYMBOL res 624 208 R270
WINDOW 0 32 56 VTop 2
WINDOW 3 0 56 VBottom 2
SYMATTR InstName R12
SYMATTR Value 100k
SYMBOL res 1008 208 R0
SYMATTR InstName R13
SYMATTR Value 600k
SYMBOL res 1008 400 R0
SYMATTR InstName R14
SYMATTR Value 1k
SYMBOL bv 112 288 R0
SYMATTR InstName B1
SYMATTR Value V=V(vin) * V(carrier)
TEXT -1136 376 Left 2 !.tran 150m
TEXT -1136 400 Left 2 !;ac dec 1000 1 100k
