Version 4
SHEET 1 1060 680
WIRE -320 32 -384 32
WIRE 1056 32 -320 32
WIRE 16 96 -240 96
WIRE 576 96 16 96
WIRE 656 112 640 112
WIRE 672 112 656 112
WIRE 768 112 752 112
WIRE 816 112 768 112
WIRE 576 128 560 128
WIRE 928 128 880 128
WIRE 944 128 928 128
WIRE 1056 128 1024 128
WIRE 816 144 800 144
WIRE 928 144 928 128
WIRE 560 160 560 128
WIRE 656 160 656 112
WIRE 656 160 560 160
WIRE 80 176 -144 176
WIRE 192 176 80 176
WIRE 272 192 256 192
WIRE 352 192 336 192
WIRE 368 192 352 192
WIRE 464 192 448 192
WIRE 512 192 464 192
WIRE 576 192 512 192
WIRE -384 208 -384 32
WIRE -240 208 -240 96
WIRE -144 208 -144 176
WIRE 16 208 16 96
WIRE 80 208 80 176
WIRE 192 208 176 208
WIRE 512 208 512 192
WIRE 656 208 640 208
WIRE 672 208 656 208
WIRE 768 208 768 112
WIRE 768 208 752 208
WIRE -320 224 -320 32
WIRE 464 224 464 192
WIRE 576 224 560 224
WIRE 176 240 176 208
WIRE 352 240 352 192
WIRE 352 240 176 240
WIRE 800 240 800 144
WIRE 928 240 928 224
WIRE 928 240 800 240
WIRE 560 256 560 224
WIRE 656 256 656 208
WIRE 656 256 560 256
WIRE 928 256 928 240
WIRE -384 304 -384 288
WIRE -320 304 -320 288
WIRE -240 304 -240 288
WIRE -144 304 -144 288
WIRE 16 304 16 288
WIRE 80 304 80 288
WIRE 464 304 464 288
WIRE 512 304 512 288
WIRE 928 352 928 336
FLAG -384 304 0
FLAG -240 304 0
FLAG -144 304 0
FLAG 464 304 0
FLAG 512 304 0
FLAG 928 352 0
FLAG -320 304 0
FLAG 16 304 0
FLAG 80 304 0
SYMBOL voltage -384 192 R0
WINDOW 123 0 0 Left 2
WINDOW 39 0 0 Left 2
SYMATTR InstName V1
SYMATTR Value 5
SYMBOL voltage -240 192 R0
WINDOW 123 0 0 Left 2
WINDOW 39 0 0 Left 2
SYMATTR InstName V2
SYMATTR Value SINE()
SYMBOL voltage -144 192 R0
WINDOW 123 0 0 Left 2
WINDOW 39 0 0 Left 2
SYMATTR InstName V3
SYMATTR Value SINE()
SYMBOL Opamps\\opamp 608 272 M180
WINDOW 3 0 4 Left 2
SYMATTR InstName U2
SYMATTR Value LM324
SYMBOL Opamps\\opamp 608 176 M180
WINDOW 3 0 4 Left 2
SYMATTR InstName U3
SYMATTR Value LM324
SYMBOL Opamps\\opamp 848 192 M180
WINDOW 3 0 4 Left 2
SYMATTR InstName U4
SYMATTR Value LM324
SYMBOL Opamps\\opamp 224 256 M180
WINDOW 3 0 4 Left 2
SYMATTR InstName U1
SYMATTR Value LM324
SYMBOL diode 272 208 R270
WINDOW 0 32 32 VTop 2
WINDOW 3 0 32 VBottom 2
SYMATTR InstName D1
SYMBOL res 352 208 R270
WINDOW 0 32 56 VTop 2
WINDOW 3 0 56 VBottom 2
SYMATTR InstName R1
SYMBOL cap 448 224 R0
SYMATTR InstName C1
SYMBOL res 496 192 R0
SYMATTR InstName R2
SYMBOL res 656 128 R270
WINDOW 0 32 56 VTop 2
WINDOW 3 0 56 VBottom 2
SYMATTR InstName R3
SYMBOL res 656 224 R270
WINDOW 0 32 56 VTop 2
WINDOW 3 0 56 VBottom 2
SYMATTR InstName R4
SYMBOL res 912 128 R0
SYMATTR InstName R5
SYMBOL res 912 240 R0
SYMATTR InstName R6
SYMBOL res 928 144 R270
WINDOW 0 32 56 VTop 2
WINDOW 3 0 56 VBottom 2
SYMATTR InstName R7
SYMBOL cap -336 224 R0
SYMATTR InstName C2
SYMBOL res 0 192 R0
SYMATTR InstName R8
SYMBOL res 64 192 R0
SYMATTR InstName R9
