Version 4
SHEET 1 1060 680
WIRE -1040 -32 -1104 -32
WIRE -496 -32 -1040 -32
WIRE -384 -32 -448 -32
WIRE 288 -32 -384 -32
WIRE 544 -32 288 -32
WIRE 640 -32 544 -32
WIRE 912 -32 640 -32
WIRE 1056 -32 912 -32
WIRE -768 32 -928 32
WIRE -560 32 -704 32
WIRE 528 32 368 32
WIRE 432 64 384 64
WIRE 432 80 432 64
WIRE 896 80 848 80
WIRE -928 96 -928 32
WIRE -864 96 -928 96
WIRE -448 96 -448 -32
WIRE -448 96 -608 96
WIRE -16 96 -240 96
WIRE 400 96 -16 96
WIRE 848 96 848 80
WIRE 176 112 160 112
WIRE 336 112 256 112
WIRE 528 112 528 32
WIRE 528 112 464 112
WIRE 672 112 528 112
WIRE 768 112 752 112
WIRE 816 112 768 112
WIRE -384 128 -384 -32
WIRE 368 128 368 32
WIRE 400 128 368 128
WIRE 928 128 880 128
WIRE 944 128 928 128
WIRE 1056 128 1024 128
WIRE 816 144 800 144
WIRE 928 144 928 128
WIRE -864 160 -928 160
WIRE -560 160 -560 32
WIRE -560 160 -608 160
WIRE 288 160 288 -32
WIRE 288 160 224 160
WIRE 432 160 432 144
WIRE 544 160 544 -32
WIRE 544 160 432 160
WIRE 608 160 560 160
WIRE 48 176 -144 176
WIRE 64 176 48 176
WIRE 160 176 160 112
WIRE 160 176 144 176
WIRE 192 176 160 176
WIRE 560 176 560 160
WIRE -16 192 -16 96
WIRE 48 192 48 176
WIRE 272 192 256 192
WIRE 336 192 336 112
WIRE 432 192 336 192
WIRE 480 192 432 192
WIRE 528 192 480 192
WIRE 848 192 848 160
WIRE 912 192 912 -32
WIRE 912 192 848 192
WIRE -1104 208 -1104 -32
WIRE -240 208 -240 96
WIRE -144 208 -144 176
WIRE 480 208 480 192
WIRE 624 208 592 208
WIRE 672 208 624 208
WIRE 768 208 768 112
WIRE 768 208 752 208
WIRE -1040 224 -1040 -32
WIRE -864 224 -928 224
WIRE -496 224 -496 -32
WIRE -496 224 -608 224
WIRE 432 224 432 192
WIRE 528 224 512 224
WIRE 272 240 272 192
WIRE 352 240 336 240
WIRE 800 240 800 144
WIRE 928 240 928 224
WIRE 928 240 800 240
WIRE 224 256 224 224
WIRE 288 256 224 256
WIRE 512 256 512 224
WIRE 624 256 624 208
WIRE 624 256 512 256
WIRE 928 256 928 240
WIRE -864 288 -928 288
WIRE -384 288 -384 192
WIRE -384 288 -608 288
WIRE -336 288 -384 288
WIRE -1104 304 -1104 288
WIRE -1040 304 -1040 288
WIRE -336 304 -336 288
WIRE -240 304 -240 288
WIRE -16 304 -16 272
WIRE 48 304 48 272
WIRE 160 304 160 176
WIRE 176 304 160 304
WIRE 352 304 352 240
WIRE 352 304 256 304
WIRE 432 304 432 288
WIRE 480 304 480 288
WIRE 560 304 560 240
WIRE 640 304 640 -32
WIRE 640 304 560 304
WIRE -144 336 -144 288
WIRE 928 352 928 336
WIRE -384 416 -384 288
WIRE -144 480 -144 416
WIRE -928 672 -928 288
WIRE -384 672 -384 480
WIRE -384 672 -928 672
WIRE 288 672 288 256
WIRE 288 672 -384 672
WIRE 384 672 384 64
WIRE 384 672 288 672
WIRE 608 672 608 160
WIRE 608 672 384 672
WIRE 896 672 896 80
WIRE 896 672 608 672
FLAG -1104 304 0
FLAG -240 304 0
FLAG -144 480 0
FLAG 432 304 0
FLAG 480 304 0
FLAG 928 352 0
FLAG -1040 304 0
FLAG -16 304 0
FLAG 48 304 0
FLAG -336 304 0
FLAG 192 208 0
SYMBOL voltage -1104 192 R0
WINDOW 123 0 0 Left 2
WINDOW 39 0 0 Left 2
SYMATTR InstName V1
SYMATTR Value 5
SYMBOL voltage -240 192 R0
WINDOW 123 24 124 Left 2
WINDOW 39 0 0 Left 2
SYMATTR Value2 AC 1
SYMATTR InstName V2
SYMATTR Value SINE(0 100m 400)
SYMBOL voltage -144 192 R0
WINDOW 123 0 0 Left 2
WINDOW 39 0 0 Left 2
SYMATTR InstName V3
SYMATTR Value SINE(0 1 10k)
SYMBOL diode 272 208 R270
WINDOW 0 32 32 VTop 2
WINDOW 3 0 32 VBottom 2
SYMATTR InstName D1
SYMATTR Value 1N4148
SYMBOL cap 416 224 R0
SYMATTR InstName C1
SYMATTR Value 10µ
SYMBOL res 464 192 R0
SYMATTR InstName R2
SYMATTR Value 1k
SYMBOL res 656 128 R270
WINDOW 0 32 56 VTop 2
WINDOW 3 0 56 VBottom 2
SYMATTR InstName R3
SYMATTR Value 100k
SYMBOL res 656 224 R270
WINDOW 0 32 56 VTop 2
WINDOW 3 0 56 VBottom 2
SYMATTR InstName R4
SYMATTR Value 100k
SYMBOL res 912 128 R0
SYMATTR InstName R5
SYMATTR Value 100k
SYMBOL res 912 240 R0
SYMATTR InstName R6
SYMATTR Value 100k
SYMBOL res 928 144 R270
WINDOW 0 32 56 VTop 2
WINDOW 3 0 56 VBottom 2
SYMATTR InstName R7
SYMATTR Value 50
SYMBOL cap -1056 224 R0
SYMATTR InstName C2
SYMATTR Value 100n
SYMBOL res -32 176 R0
SYMATTR InstName R8
SYMATTR Value 10k
SYMBOL res 32 176 R0
SYMATTR InstName R9
SYMATTR Value 10k
SYMBOL Opamps\\UniversalOpamp2 224 192 R0
SYMATTR InstName U1
SYMBOL Opamps\\UniversalOpamp2 560 208 M180
SYMATTR InstName U2
SYMBOL Opamps\\UniversalOpamp2 432 112 M180
SYMATTR InstName U3
SYMBOL Opamps\\UniversalOpamp2 848 128 M180
SYMATTR InstName U4
SYMBOL voltage -144 320 R0
WINDOW 123 0 0 Left 2
WINDOW 39 0 0 Left 2
SYMATTR InstName V4
SYMATTR Value SINE(0 3 10k 50m 0 0 500)
SYMBOL PowerProducts\\LT1026 -736 192 R0
SYMATTR InstName U5
SYMBOL cap -944 160 R0
SYMATTR InstName C5
SYMATTR Value 1µ
SYMBOL cap -768 48 R270
WINDOW 0 32 32 VTop 2
WINDOW 3 0 32 VBottom 2
SYMATTR InstName C6
SYMATTR Value 1µ
SYMBOL cap -400 128 R0
SYMATTR InstName C3
SYMATTR Value 10µ
SYMBOL cap -400 416 R0
SYMATTR InstName C4
SYMATTR Value 10µ
SYMBOL res 48 192 R270
WINDOW 0 32 56 VTop 2
WINDOW 3 0 56 VBottom 2
SYMATTR InstName R1
SYMATTR Value 100k
SYMBOL res 160 320 R270
WINDOW 0 32 56 VTop 2
WINDOW 3 0 56 VBottom 2
SYMATTR InstName R10
SYMATTR Value 100k
SYMBOL res 160 128 R270
WINDOW 0 32 56 VTop 2
WINDOW 3 0 56 VBottom 2
SYMATTR InstName R11
SYMATTR Value 100k
SYMBOL diode 336 224 R90
WINDOW 0 0 32 VBottom 2
WINDOW 3 32 32 VTop 2
SYMATTR InstName D2
SYMATTR Value 1N4148
TEXT -1136 376 Left 2 !.tran 150m
TEXT -1136 400 Left 2 !;ac dec 1000 1 100k
